Version 4
SHEET 1 1236 732
WIRE 96 -160 16 -160
WIRE 288 -160 160 -160
WIRE 736 -64 416 -64
WIRE -176 -48 -176 -96
WIRE 144 -48 -176 -48
WIRE 816 0 736 0
WIRE 864 0 816 0
WIRE 144 80 144 -48
WIRE 144 80 96 80
WIRE -288 96 -384 96
WIRE 64 96 -288 96
WIRE 288 112 288 -160
WIRE 288 112 176 112
WIRE 416 112 416 -64
WIRE 416 112 288 112
WIRE 16 128 16 -160
WIRE 64 128 16 128
WIRE 144 144 96 144
WIRE -384 160 -384 96
WIRE 16 176 16 128
WIRE 16 176 -32 176
WIRE 144 192 144 144
WIRE 160 192 144 192
WIRE 160 304 160 192
WIRE 160 304 32 304
WIRE 288 320 288 112
WIRE 288 320 208 320
WIRE 464 320 400 320
WIRE -288 352 -288 96
WIRE -256 352 -288 352
WIRE 400 384 400 320
WIRE 400 384 352 384
WIRE -256 400 -256 352
WIRE 320 400 208 400
WIRE 720 416 432 416
WIRE 928 416 720 416
WIRE 320 432 256 432
WIRE 400 448 352 448
WIRE 400 480 400 448
WIRE 528 480 400 480
WIRE 1056 480 928 480
WIRE 1136 480 1056 480
WIRE -256 560 -256 480
WIRE 256 560 256 432
WIRE 256 560 -256 560
WIRE -112 704 -112 176
WIRE 256 704 256 624
WIRE 256 704 -112 704
WIRE 720 704 720 416
WIRE 720 704 256 704
FLAG 944 0 0
FLAG 208 464 0
FLAG 816 0 Vsin
IOPIN 816 0 Out
FLAG -384 240 0
FLAG 528 560 0
FLAG 464 240 0
FLAG 1216 480 0
FLAG 1056 480 Vcos
IOPIN 1056 480 Out
FLAG -176 -176 0
FLAG 32 384 0
SYMBOL UA741 96 112 R0
SYMATTR InstName U1
SYMBOL UA741 352 416 R0
SYMATTR InstName U2
SYMBOL cap 720 -64 R0
SYMATTR InstName C1
SYMATTR Value 15p
SYMBOL res 960 -16 R90
WINDOW 0 0 56 VBottom 2
WINDOW 3 32 56 VTop 2
SYMATTR InstName R1
SYMATTR Value 10Meg
SYMBOL res -16 160 R90
WINDOW 0 0 56 VBottom 2
WINDOW 3 32 56 VTop 2
SYMATTR InstName R2
SYMATTR Value {R}
SYMBOL cap 160 -176 R90
WINDOW 0 0 32 VBottom 2
WINDOW 3 32 32 VTop 2
SYMATTR InstName C2
SYMATTR Value {C}
SYMBOL res 192 304 R0
SYMATTR InstName R3
SYMATTR Value {R}
SYMBOL cap 192 400 R0
SYMATTR InstName C3
SYMATTR Value {C}
SYMBOL voltage -384 144 R0
WINDOW 123 0 0 Left 0
WINDOW 39 0 0 Left 0
SYMATTR InstName V1
SYMATTR Value 2.5
SYMBOL cap 240 560 R0
SYMATTR InstName C4
SYMATTR Value {C}
SYMBOL res -272 384 R0
SYMATTR InstName R4
SYMATTR Value {R}
SYMBOL voltage 528 464 R0
WINDOW 123 0 0 Left 0
WINDOW 39 0 0 Left 0
SYMATTR InstName V2
SYMATTR Value {VSS}
SYMBOL voltage 464 336 R180
WINDOW 0 24 96 Left 2
WINDOW 3 24 16 Left 2
WINDOW 123 0 0 Left 0
WINDOW 39 0 0 Left 0
SYMATTR InstName V3
SYMATTR Value {VDD}
SYMBOL cap 912 416 R0
SYMATTR InstName C5
SYMATTR Value 15p
SYMBOL res 1232 464 R90
WINDOW 0 0 56 VBottom 2
WINDOW 3 32 56 VTop 2
SYMATTR InstName R5
SYMATTR Value 10Meg
SYMBOL voltage -176 -80 R180
WINDOW 0 24 96 Left 2
WINDOW 3 24 16 Left 2
WINDOW 123 0 0 Left 0
WINDOW 39 0 0 Left 0
SYMATTR InstName V4
SYMATTR Value {VDD}
SYMBOL voltage 32 288 R0
WINDOW 123 0 0 Left 0
WINDOW 39 0 0 Left 0
SYMATTR InstName V5
SYMATTR Value {VSS}
TEXT -824 192 Left 2 !.param R 9.1k
TEXT -816 240 Left 2 !.param C 68p
TEXT -826 714 Left 2 !.tran 200u
TEXT -808 320 Left 2 !.param VSS 0
TEXT -816 288 Left 2 !.param VDD 5
